Circuit: * D:\work\PlantCare\doc\simulation\failsafe-switching.asc

Direct Newton iteration for .op point succeeded.

Date: Sat Dec 29 15:44:26 2018
Total elapsed time: 0.109 seconds.

tnom = 27
temp = 27
method = modified trap
totiter = 5392
traniter = 5385
tranpoints = 1712
accept = 1565
rejected = 147
matrix size = 13
fillins = 2
solver = Normal
Matrix Compiler1: 834 bytes object code size  0.5/0.3/[0.1]
Matrix Compiler2: off  [0.2]/0.4/0.3

